<?xml version="1.0" encoding="UTF-8"?>

<!-- generated on 2025-03-31 13:04:05 by Eclipse SUMO sumo Version 1.22.0
-->

<sumoConfiguration xmlns:xsi="http://www.w3.org/2001/XMLSchema-instance" xsi:noNamespaceSchemaLocation="http://sumo.dlr.de/xsd/sumoConfiguration.xsd">

    <input>
        <net-file value="multi_agent.net.xml"/>
        <route-files value="blue_agent.rou.xml"/>
    </input>

</sumoConfiguration>
