<?xml version="1.0" encoding="UTF-8"?>

<!-- generated on 2025-03-27 11:21:54 by Eclipse SUMO netedit Version 1.22.0
-->

<routes xmlns:xsi="http://www.w3.org/2001/XMLSchema-instance" xsi:noNamespaceSchemaLocation="http://sumo.dlr.de/xsd/routes_file.xsd">
    <!-- Vehicles, persons and containers (sorted by depart) -->
    <flow id="f_0" begin="0.00" from="-E0" to="E1" end="3600.00" period="exp(3.6)"/>
    <vehicle id="v_blue" depart="0.00" color="blue">
        <route edges="E0 E0.69"/>
    </vehicle>
</routes>
