<?xml version="1.0" encoding="UTF-8"?>

<!-- generated on 2025-04-22 10:17:14 by Eclipse SUMO netedit Version v1_21_0+0963-2076002d396
-->

<routes xmlns:xsi="http://www.w3.org/2001/XMLSchema-instance" xsi:noNamespaceSchemaLocation="http://sumo.dlr.de/xsd/routes_file.xsd">
    <!-- Vehicles, persons and containers (sorted by depart) -->
    <vehicle id="v_blue" depart="0.00" color="blue">
        <route edges="-E0 E1"/>
    </vehicle>
    <flow id="f_0" begin="0.00" from="E0" to="E1" end="36000.00" period="exp(3.6)"/>
</routes>
