<?xml version="1.0" encoding="UTF-8"?>

<!-- generated on 2025-04-22 10:17:14 by Eclipse SUMO netedit Version v1_21_0+0963-2076002d396
-->

<additional xmlns:xsi="http://www.w3.org/2001/XMLSchema-instance" xsi:noNamespaceSchemaLocation="http://sumo.dlr.de/xsd/additional_file.xsd">
</additional>
